CM NEC Input File of a Truck Cab
CM Wheels were removed to fit into demo 50 wire limit
CE
GW 14    7  -3.50000   7.20000   3.50000  -3.50000  18.00000   3.50000   0.01000
GW 14    4  -3.50000   7.20000   3.50000  -3.50000   7.20000   8.20000   0.01000
GW 14    1  -3.50000   7.20000   8.20000  -3.50000   7.10000  10.00000   0.01000
GW 14    4  -3.50000   7.10000  10.00000  -3.50000   0.20000  10.00000   0.01000
GW 14    1  -3.50000   0.20000  10.00000  -3.50000   0.15000   7.35000   0.01000
GW 14    3  -3.50000   0.15000   7.35000  -3.50000   0.15000   3.50000   0.01000
GW 14    6  -3.50000   0.15000   3.50000  -3.50000   7.20000   3.50000   0.01000
GW 14    4  -3.50000   7.20000   3.50000   3.50000   7.20000   3.50000   0.01000
GW 14    4  -3.50000   7.20000   8.20000   3.50000   7.20000   8.20000   0.01000
GW 14    4  -3.50000   7.10000  10.00000   3.50000   7.10000  10.00000   0.01000
GW 14    4   3.50000   7.10000  10.00000   3.50000   0.20000  10.00000   0.01000
GW 14    4  -3.50000   0.15000   7.35000   3.50000   0.15000   7.35000   0.01000
GW 14    3   3.50000   0.15000   7.35000   3.50000   0.15000   3.50000   0.01000
GW 14    6   3.50000   0.15000   3.50000   3.50000   7.20000   3.50000   0.01000
GW 14    7   3.50000   7.20000   3.50000   3.50000  18.00000   3.50000   0.01000
GW 14    4   3.50000   3.65000  10.00000  -3.50000   3.65000  10.00000   0.01000
GW 14    4   3.50000   0.15000   3.50000  -3.50000   0.15000   3.50000   0.01000
GW 14    1   3.50000   7.20000   8.20000   3.50000   7.10000  10.00000   0.01000
GW 14    4   3.50000   7.20000   8.20000   3.50000   7.20000   3.50000   0.01000
GW 14    4   3.50000  18.00000   3.50000  -3.50000  18.00000   3.50000   0.01000
GW 14    4  -3.50000   0.20000  10.00000   3.50000   0.20000  10.00000   0.01000
GW 14    1   3.50000   0.20000  10.00000   3.50000   0.15000   7.35000   0.01000
GW 18    7   0.00000  18.00000   3.50000   0.00000   7.20000   3.50000   0.01000
GW 18    1  -3.50000  16.45714   3.50000   3.50000  16.45714   3.50000   0.01000
GW 18    7   1.75000   7.20000   3.50000   1.75000  18.00000   3.50000   0.01000
GW 18    7  -1.75000  18.00000   3.50000  -1.75000   7.20000   3.50000   0.01000
GW  1    4  -3.50000   1.92500  10.00000   3.50000   1.92500  10.00000   0.00100
GW  1    4  -3.50000   5.37500  10.00000   3.50000   5.37500  10.00000   0.00100
GW  1    4   1.75000   0.20000  10.00000   1.75000   7.10000  10.00000   0.00100
GW  1    4   0.00000   0.20000  10.00000   0.00000   7.10000  10.00000   0.00100
GW  1    4  -1.75000   0.20000  10.00000  -1.75000   7.10000  10.00000   0.00100
GW  1    4  -1.75000   3.65000  10.00000  -1.75000   3.65000  19.00000   0.00100
GW  1    4   3.50000   3.65000   9.95000   3.50000   3.67500   3.50000   0.00100
GW  1    4  -3.50000   3.65000  10.00000  -3.50000   3.67500   3.50000   0.00100
GW  1    1   0.00000   7.10000  10.00000   0.00000   7.20000   8.20000   0.00100
GW  1    4   0.00000   7.20000   8.20000   0.00000   7.20000   3.50000   0.00100
GW  1    4   3.50000  14.91429   3.50000  -3.50000  14.91429   3.50000   0.00100
GW  1    4   3.50000  13.37143   3.50000  -3.50000  13.37143   3.50000   0.00100
GW  1    4   3.50000  11.82857   3.50000  -3.50000  11.82857   3.50000   0.00100
GW  1    4   3.50000  10.28571   3.50000  -3.50000  10.28571   3.50000   0.00100
GW  1    4   3.50000   8.74286   3.50000  -3.50000   8.74286   3.50000   0.00100
GW  1    4   1.75000   7.10000  10.00000   1.75000   7.20000   8.20000   0.00100
GW  1    4   1.75000   7.20000   8.20000   1.75000   7.20000   3.50000   0.00100
GW  1    4  -1.75000   7.10000  10.00000  -1.75000   7.20000   8.20000   0.00100
GW  1    4  -1.75000   7.25000   8.20000  -1.75000   7.20000   3.50000   0.00100
GW  1    4  -1.75000   3.65000  10.00000   0.00000   5.37500  10.00000   0.00100
GW  1    1  -1.75000   3.65000  10.00000  -3.50000   5.37500  10.00000   0.00100
GW  1    1  -1.75000   3.65000  10.00000  -3.55000   1.95000  10.00000   0.00100
GW  1    1  -1.75000   3.65000  10.00000   0.00000   1.92500  10.00000   0.00100
GE  0
EN
